LAMMPS (17 Apr 2024)
Loaded 1 plugins from G:\lammps\LAMMPS 64-bit 17Apr2024-MSMPI\plugins
# 模型参数

variable potential_name     string data/Cu.eam.alloy  # 势函数文件名
variable type_1             string Cu                 # 所选元素
variable init_tempareture   equal   300               # 体系初始初始温度
variable setted_tempareture equal    300              # nvt弛豫下的设定温度
variable heat_flux          equal    10               # 体系引入热流大小
variable lattice_steps      equal    1000             # 弛豫步数
variable lattice_ensemble   string     nvt            # 弛豫所选系综名称
variable lattice_x_max_1 equal 36.1                   # 体系x最大值
variable sim_steps          equal     1000            # 热导率nve模拟下的弛豫时间

units metal
boundary p p p
atom_style atomic
timestep 0.001
neighbor 2 bin
neigh_modify check no

# 体系模型读取
read_data melolular_dynamics/simulator/in/data/lattice_1.lmp
Reading data file ...
  orthogonal box = (0 0 0) to (36.1 21.66 21.66)
  reading atoms ...
  1440 atoms

# 力场设置
pair_style eam/alloy
pair_coeff * * data/Cu.eam.alloy Cu
Reading eam/alloy potential file data/Cu.eam.alloy with DATE: 2024-05-21

# 能量最小化
variable lattice_min_steps equal 1000/10
min_style cg
minimize 0 0 100 100
Step          Temp          E_pair         E_mol          TotEng         Press
0   0             -5097.4679      0             -5097.4679      5734.0397
Loop time of 0.435203 on 1 procs for 50 steps with 1440 atoms

Minimization stats:
  Stopping criterion = max force evaluations
  Energy initial, next-to-last, final =
  Force two-norm initial, final = 2.6645668e-13 2.6479765e-13
  Force max component initial, final = 1.6505894e-14 1.5969846e-14
  Final line search alpha, max atom move = 1 1.5969846e-14
  Iterations, force evaluations = 50 100

reset_timestep 0

# 温度初始化
velocity all create 300 32133

# 弛豫
variable lattice_steps_thermo equal 1000/100
thermo 10
thermo_style custom step temp
fix 1 all nvt temp 300 300 0.1
run 1000
   Step          Temp
         0   300
        10   265.01271
        20   181.96596
        30   101.44819
        40   66.733436
        50   83.786245
        60   122.7327
        70   148.90346
        80   150.96679
        90   143.36545
       100   147.27293
       110   168.94967
       120   194.47194
       130   204.0173
       140   190.6662
       150   166.55134
       160   152.24437
       170   159.08679
       180   179.60471
       190   195.02553
       200   193.02103
       210   178.48631
       220   167.88877
       230   173.50522
       240   192.48076
       250   210.41342
       260   214.92605
       270   206.1517
       280   195.60105
       290   195.23929
       300   206.67808
       310   220.51621
       320   226.00593
       330   220.98075
       340   212.81126
       350   210.88758
       360   218.41614
       370   230.3975
       380   238.86873
       390   240.4284
       400   238.76383
       410   239.88828
       420   245.55105
       430   251.81137
       440   253.87541
       450   251.61962
       460   249.78719
       470   253.58968
       480   264.24987
       490   277.13207
       500   284.23611
       510   280.4606
       520   268.53386
       530   257.70256
       540   256.55741
       550   266.03172
       560   279.03328
       570   287.09897
       580   288.17877
       590   287.92795
       600   292.62512
       610   302.1452
       620   310.89593
       630   313.77234
       640   310.11061
       650   303.42281
       660   298.73539
       670   298.97719
       680   302.95059
       690   307.3839
       700   310.31394
       710   311.70241
       720   312.12933
       730   312.3741
       740   313.0579
       750   313.79955
       760   313.46088
       770   311.07964
       780   307.05303
       790   304.03028
       800   305.6524
       810   313.67115
       820   325.50055
       830   334.57556
       840   334.87582
       850   326.04385
       860   313.60092
       870   304.24368
       880   301.11424
       890   302.67993
       900   305.33431
       910   306.32604
       920   304.78104
       930   301.86431
       940   300.41578
       950   302.55371
       960   307.08077
       970   310.31108
       980   308.84872
       990   301.77503
      1000   291.88524
Loop time of 4.66222 on 1 procs for 1000 steps with 1440 atoms

unfix 1
reset_timestep 0

# 热导率计算
# 设置热源、冷源区域
variable lattice_x_max_1_temp equal 36.1-2.0
region          hot block 0 2 INF INF INF INF
region          cold block 34.1 36.1 INF INF INF INF
# 计算冷热源区域温度
compute         Thot all temp/region hot
compute         Tcold all temp/region cold
# nvt下进行平衡模拟,到达设定温度
fix             1 all nvt temp 300 300 0.5
thermo	        100
run             1000
   Step          Temp
         0   291.88524
       100   306.77586
       200   284.64465
       300   303.41496
       400   300.6387
       500   302.12865
       600   293.30849
       700   307.18482
       800   297.92937
       900   297.82956
      1000   302.58964
Loop time of 4.65778 on 1 procs for 1000 steps with 1440 atoms

# 调整温度达到设定温度
unfix		1
# 设定nve系综
fix		1 all nve
# 热源处持续输入热量
fix             hot all heat 1 10 region hot
# 冷源处持续抽走热量
variable heat_flux_temp equal -10
fix             cold all heat 1 -10 region cold
# 设定热力学参数输出
#c_是提取compute的结果
variable sim_steps_thermo equal 1000/100
thermo_style    custom step temp c_Thot c_Tcold
thermo	        10
# 运行1000步
run             1000
Step          Temp          c_Thot        c_Tcold
1000   302.58964      262.95222      303.8342
Averages over the last 51 of 101 rows, steps 1500 to 2000:
Temp c_Thot c_Tcold
303.364 342.467 289.237
Loop time of 4.80344 on 1 procs for 1000 steps with 1440 atoms

reset_timestep 0
# 计算原子动能
compute		ke all ke/atom
# 根据原子动能计算原子温度
variable	temp atom c_ke/(1.5*8.625e-5)
# 沿z方向进行切块，把原子划入到不同的块中
# 划分为20块 1/0.05
compute         layers all chunk/atom bin/1d x lower 0.05 units reduced
# 计算块内原子温度
fix		2 all ave/chunk 10 10 100 layers v_temp file profile.heat
# 计算温差
variable        tdiff equal f_2[20][1]-f_2[1][1]
# 计算平均温差
fix             ave all ave/time 1 1 100 v_tdiff ave running start 100
# 输出平均温差
thermo_style    custom step temp c_Thot c_Tcold v_tdiff
thermo 100
# 运行2000步
run             2000
Step          Temp          c_Thot        c_Tcold        v_tdiff
0   300.84613      340.48668      283.84275     -0.025
Averages over the last 11 of 21 rows, steps 1000 to 2000:
Temp c_Thot c_Tcold v_tdiff
304.04 365.998 283.248 0.95
Loop time of 9.40877 on 1 procs for 2000 steps with 1440 atoms
