LAMMPS (17 Apr 2024)
Loaded 1 plugins from G:\lammps\LAMMPS 64-bit 17Apr2024-MSMPI\plugins
# 模型参数

    # $potential_name   # 势函数文件名
    # $atom_name        # 所选元素
# $init_tempareture    # 体系初始初始温度
# $heat_flux           # 体系引入热流大小
    # $integrate_step   # 弛豫时间（0.001ps一次）
# $lattice_ensemble    # 弛豫所选系综名称

units metal
boundary p p p
atom_style atomic
timestep 0.001
neighbor 2 bin
neigh_modify check no

# 体系模型读取
read_data ../data/lattice_1.lmp
Reading data file ...
  orthogonal box = (0 0 0) to (72.2 18.05 18.05)
  reading atoms ...
  2000 atoms

# 力场设置
pair_style eam/alloy
pair_coeff * * ../data/Cu.eam.alloy Cu
Reading eam/alloy potential file ../data/Cu.eam.alloy with DATE: 2024-05-21

# 能量最小化
min_style cg
minimize 0 0 100 100
Step          Temp          E_pair         E_mol          TotEng         Press
0   0             -7079.8166      0             -7079.8166      5734.0397
Loop time of 0.603441 on 1 procs for 50 steps with 2000 atoms

Minimization stats:
  Stopping criterion = max force evaluations
  Energy initial, next-to-last, final =
  Force two-norm initial, final = 9.8743311e-13 9.7965859e-13
  Force max component initial, final = 6.5655754e-14 6.5475403e-14
  Final line search alpha, max atom move = 1 6.5475403e-14
  Iterations, force evaluations = 50 100

# 温度初始化
velocity all create 300 32133

# 弛豫
thermo 100
thermo_style custom step temp
fix 1 all nvt temp 300 300 0.1
run 1000
   Step          Temp
        50   300
       100   86.822311
       200   164.39735
       300   207.19175
       400   208.18083
       500   252.28806
       600   281.91203
       700   308.3597
       800   317.81094
       900   306.72194
      1000   309.23392
      1050   297.14075
Loop time of 6.61556 on 1 procs for 1000 steps with 2000 atoms

unfix 1
reset_timestep 0

# 热导率计算
# 设置热源、冷源区域
region          hot block 0 1 INF INF INF INF
region          cold block 70 72 INF INF INF INF
# 计算冷热源区域温度
compute         Thot all temp/region hot
compute         Tcold all temp/region cold
# nvt下进行平衡模拟
fix             1 all nvt temp 300 300 0.5
thermo	        100
run             1000
   Step          Temp
         0   297.14075
       100   308.26691
       200   296.95982
       300   296.75768
       400   293.69097
       500   292.3857
       600   305.73245
       700   304.56517
       800   298.64701
       900   308.74549
      1000   300.9062
Loop time of 6.70041 on 1 procs for 1000 steps with 2000 atoms

# 调整温度达到设定温度
velocity	all scale 300
unfix		1
# 设定nve系综
fix		1 all nve
# 热源处持续输入热量
# 10为热流
fix             hot all heat 1 10 region hot
# 冷源处持续抽走热量
fix             cold all heat 1 -10 region cold
# 设定热力学参数输出
#c_是提取compute的结果
thermo_style    custom step temp c_Thot c_Tcold
thermo	        100
# 运行1000步
run             1000
Step          Temp          c_Thot        c_Tcold
1000   300            281.70258      292.27601
Averages over the last 6 of 11 rows, steps 1500 to 2000:
Temp c_Thot c_Tcold
304.984 426.876 247.258
Loop time of 6.72994 on 1 procs for 1000 steps with 2000 atoms

# 计算原子动能
compute		ke all ke/atom
# 根据原子动能计算原子温度
variable	temp atom c_ke/(1.5*8.625e-5)
# 沿z方向进行切块，把原子划入到不同的块中
# 划分为20块 1/0.05
compute         layers all chunk/atom bin/1d x lower 0.05 units reduced
# 计算块内原子温度
fix		2 all ave/chunk 10 10 100 layers v_temp file profile.heat
# 计算温差
variable        tdiff equal f_2[20][1]-f_2[1][1]
# 计算平均温差
fix             ave all ave/time 1 1 100 v_tdiff ave running start 1300
# 输出平均温差
thermo_style    custom step temp c_Thot c_Tcold v_tdiff
thermo 1000
# 运行2000步
run             2000
Step          Temp          c_Thot        c_Tcold        v_tdiff
2000   305.18754      397.50591      271.76213     -0.025
Loop time of 13.4871 on 1 procs for 2000 steps with 2000 atoms
